&HEAD CHID='current_test' /

&MESH IJK=200,200,60, XB=0,100,0,100,0,100 /

&TIME T_END= 601 /
&MISC TERRAIN_CASE=.TRUE.,VEG_LEVEL_SET_UNCOUPLED=.TRUE.,
      TERRAIN_IMAGE='BT10m_2000x2000m.jpg',U0=-5,V0=-5 /

&SURF ID = 'GRASS'
      VEG_LEVEL_SET_SPREAD = .TRUE.
      VEG_LSET_ELLIPSE=.TRUE.
      VEG_LSET_SURFACE_FIRE_HEAD_ROS_MODEL= 'ROTHERMEL'
      VEG_LSET_ROTH_ZEROWINDSLOPE_ROS = 0.045
      VEG_LSET_BETA = 0.0012
      VEG_LSET_SIGMA = 11400
      VEG_LSET_SURF_HEIGHT = 0.509
      VEG_LSET_PHIDEPTH = 0.5
      RGB=122,117,48 /

&SURF ID ='IGN FIRE',VEG_LSET_IGNITE_TIME=0,COLOR = 'RED' /

&DUMP DT_OUTPUT_LS=2.0 /

&OBST XB= 0,	10,	1990,	2000,	0,	0,SURF_ID='GRASS' /
&OBST XB= 10,	20,	1990,	2000,	0,	0,SURF_ID='GRASS' /
&OBST XB= 20,	30,	1990,	2000,	0,	0,SURF_ID='GRASS' /
&OBST XB= 30,	40,	1990,	2000,	0,	0,SURF_ID='GRASS' /

&TAIL /
